Version 4
SHEET 1 4964 2100
WIRE 1616 -624 560 -624
WIRE 1424 -496 1296 -496
WIRE 1552 -496 1488 -496
WIRE 752 -400 752 -432
WIRE 752 -400 640 -400
WIRE 1296 -400 1296 -496
WIRE 1392 -400 1296 -400
WIRE 1552 -400 1552 -496
WIRE 1552 -400 1472 -400
WIRE 640 -368 640 -400
WIRE 752 -368 752 -400
WIRE 1104 -272 960 -272
WIRE 1296 -272 1296 -400
WIRE 1296 -272 1184 -272
WIRE 1440 -272 1296 -272
WIRE 1552 -256 1552 -400
WIRE 1552 -256 1504 -256
WIRE 960 -240 960 -272
WIRE 1296 -240 1296 -272
WIRE 1440 -240 1392 -240
WIRE 1392 -144 1392 -240
WIRE 560 -16 560 -624
WIRE 1616 -16 1616 -624
WIRE 1616 -16 560 -16
WIRE 1632 16 304 16
WIRE 1296 160 1296 128
WIRE 1296 272 1296 240
WIRE 1360 272 1296 272
WIRE 1488 272 1440 272
WIRE 1152 288 736 288
WIRE 1152 336 1152 288
WIRE 736 400 736 288
WIRE 1296 432 1296 272
WIRE 1376 432 1296 432
WIRE 1488 448 1488 272
WIRE 1488 448 1440 448
WIRE 544 464 544 432
WIRE 544 464 432 464
WIRE 1024 464 880 464
WIRE 1152 464 1152 416
WIRE 1152 464 1104 464
WIRE 1376 464 1152 464
WIRE 432 496 432 464
WIRE 544 496 544 464
WIRE 880 496 880 464
WIRE 736 592 736 480
WIRE 816 592 736 592
WIRE 880 592 880 576
WIRE 880 592 816 592
WIRE 816 608 816 592
WIRE 304 704 304 16
WIRE 1632 704 1632 16
WIRE 1632 704 304 704
FLAG 752 -512 VSE+
FLAG 640 -368 0
FLAG 752 -288 VSE-
FLAG 1472 -288 VSE+
FLAG 1472 -224 VSE-
FLAG 1392 -64 0
FLAG 960 -160 0
FLAG 1296 -176 0
FLAG 1408 416 V2+
FLAG 1408 480 V2-
FLAG 816 608 0
FLAG 1296 128 0
FLAG 544 352 V2+
FLAG 432 496 0
FLAG 544 576 V2-
SYMBOL voltage 752 -528 R0
WINDOW 123 0 0 Left 0
WINDOW 39 0 0 Left 0
SYMATTR InstName V2
SYMATTR Value 3.3
SYMBOL voltage 752 -384 R0
WINDOW 123 0 0 Left 0
WINDOW 39 0 0 Left 0
SYMATTR InstName V3
SYMATTR Value 0.4
SYMBOL voltage 1392 -160 R0
WINDOW 123 37 104 Left 2
WINDOW 39 0 0 Left 0
WINDOW 0 36 58 Left 2
WINDOW 3 36 86 Left 2
SYMATTR InstName V9
SYMATTR Value {Vref}
SYMBOL Opamps\\LT6238 1472 -256 R0
SYMATTR InstName U3
SYMBOL res 1200 -288 R90
WINDOW 0 0 56 VBottom 2
WINDOW 3 32 56 VTop 2
SYMATTR InstName R16
SYMATTR Value {Ri}
SYMBOL res 1488 -416 R90
WINDOW 0 0 56 VBottom 2
WINDOW 3 32 56 VTop 2
SYMATTR InstName R17
SYMATTR Value {Rf}
SYMBOL voltage 960 -256 R0
WINDOW 123 37 104 Left 2
WINDOW 39 0 0 Left 0
WINDOW 0 36 58 Left 2
WINDOW 3 36 86 Left 2
SYMATTR Value2 AC 0.1
SYMATTR InstName V11
SYMATTR Value SINE(0 10 10k)
SYMBOL cap 1488 -512 R90
WINDOW 0 0 32 VBottom 2
WINDOW 3 32 32 VTop 2
SYMATTR InstName C1
SYMATTR Value 470p
SYMBOL cap 1280 -240 R0
SYMATTR InstName C2
SYMATTR Value 43n
SYMBOL voltage 736 384 R0
WINDOW 123 37 104 Left 2
WINDOW 39 0 0 Left 0
WINDOW 0 36 58 Left 2
WINDOW 3 36 86 Left 2
SYMATTR InstName V1
SYMATTR Value 3
SYMBOL Opamps\\LT6238 1408 448 R0
SYMATTR InstName U1
SYMBOL res 1120 448 R90
WINDOW 0 0 56 VBottom 2
WINDOW 3 32 56 VTop 2
SYMATTR InstName R1
SYMATTR Value 1.5k
SYMBOL voltage 880 480 R0
WINDOW 123 37 104 Left 2
WINDOW 39 0 0 Left 0
WINDOW 0 36 58 Left 2
WINDOW 3 36 86 Left 2
SYMATTR Value2 AC 0.1
SYMATTR InstName V4
SYMATTR Value SINE(0 1 10k)
SYMBOL res 1136 320 R0
SYMATTR InstName R2
SYMATTR Value 5k
SYMBOL res 1280 144 R0
SYMATTR InstName R3
SYMATTR Value 1.75k
SYMBOL res 1456 256 R90
WINDOW 0 0 56 VBottom 2
WINDOW 3 32 56 VTop 2
SYMATTR InstName R4
SYMATTR Value 1.5k
SYMBOL voltage 544 336 R0
WINDOW 123 0 0 Left 0
WINDOW 39 0 0 Left 0
SYMATTR InstName V5
SYMATTR Value 5
SYMBOL voltage 544 480 R0
WINDOW 123 0 0 Left 0
WINDOW 39 0 0 Left 0
SYMATTR InstName V6
SYMATTR Value 5
TEXT 1696 -296 Left 2 !.tran 0 150u 0 1n
TEXT 1696 -272 Left 2 !;.ac dec 30 1k 100Meg
TEXT 1648 -416 Left 2 !.param Rf=330 G=3/20 Ri=Rf/G Vref=Ri/(Rf+Ri) *1.5
TEXT 1632 -368 Left 2 !;.step param Cs list 15n 16n 18n 20n 22n 24n 27n 30n 33n 36n 39n 43n 47n 51n 56n 62n 68n 75n
TEXT 312 0 Left 2 ;Schematic Design
TEXT 560 -640 Left 2 ;Proposed Alternative Design
